<?xml version='1.0' encoding='ISO-8859-1'?>
<febio_spec version="4.0">
	<Module type="solid">
		<units>mm-N-s</units>
	</Module>
	<Globals>
		<Constants>
			<T>0</T>
			<P>0</P>
			<R>8.31446e-06</R>
			<Fc>9.64853e-05</Fc>
		</Constants>
	</Globals>
	<Material>
		<material id="1" name="RUBBER" type="uncoupled viscoelastic">
			<density>1.0</density>
			<k>500.0</k>
			<pressure_model>Abaqus</pressure_model>
			<t1>0.1</t1>
			<t2>1.0</t2>
			<t3>0.0</t3>
			<t4>0.0</t4>
			<t5>0.0</t5>
			<t6>0.0</t6>
			<g0>0.85</g0>
			<g1>0.5</g1>
			<g2>0.1</g2>
			<g3>0.05</g3>
			<g4>0.0</g4>
			<g5>0.0</g5>
			<g6>0.0</g6>
			<elastic type="Ogden">
				<c1>10.0</c1>
				<c2>1.0</c2>
				<c3>0.1</c3>
				<c4>0.0</c4>
				<c5>0.0</c5>
				<c6>0.0</c6>
				<m1>2.0</m1>
				<m2>0.5</m2>
				<m3>0.05</m3>
				<m4>0.05</m4>
				<m5>0.05</m5>
				<m6>0.05</m6>
			</elastic>
		</material>
		<material id="2" name="MEMBRANE" type="neo-Hookean">
			<density>1</density>
			<E>4500</E>
			<v>0.3</v>
		</material>
		<material id="3" name="KEYCAP" type="rigid body">
			<density>1</density>
			<E>1700</E>
			<v>0.49</v>
		</material>
	</Material>
	<Mesh>
		<Nodes name="KEYCAP_OBJ">
			<node id="1">-0.5,-2.5,2.65</node>
			<node id="2">2.5,-2.5,2.65</node>
			<node id="3">2.5,0.5,2.65</node>
			<node id="4">-0.5,0.5,2.65</node>
			<node id="5">-0.5,-2.5,3.15</node>
			<node id="6">2.5,-2.5,3.15</node>
			<node id="7">2.5,0.5,3.15</node>
			<node id="8">-0.5,0.5,3.15</node>
			<node id="9">-0.35,-2.5,2.65</node>
			<node id="10">-0.2,-2.5,2.65</node>
			<node id="11">-0.05,-2.5,2.65</node>
			<node id="12">0.1,-2.5,2.65</node>
			<node id="13">0.25,-2.5,2.65</node>
			<node id="14">0.4,-2.5,2.65</node>
			<node id="15">0.55,-2.5,2.65</node>
			<node id="16">0.7,-2.5,2.65</node>
			<node id="17">0.85,-2.5,2.65</node>
			<node id="18">1,-2.5,2.65</node>
			<node id="19">1.15,-2.5,2.65</node>
			<node id="20">1.3,-2.5,2.65</node>
<!-- ... 1303 like lines cut -->
		</Nodes>
		<Nodes name="RUBBER_OBJ">
			<node id="16373">0,0,0.986189887</node>
			<node id="16374">3.17717949e-18,-0.0518872787,0.988898951</node>
			<node id="16375">6.35435898e-18,-0.103774557,0.997080739</node>
			<node id="16376">9.53153847e-18,-0.155661836,1.0110479</node>
			<node id="16377">1.2708718e-17,-0.207549115,1.03131185</node>
			<node id="16378">1.58858974e-17,-0.259436393,1.04618994</node>
			<node id="16379">0.0544232455,3.85185989e-34,0.989165409</node>
			<node id="16380">0.0526877236,-0.0485117456,0.991354669</node>
			<node id="16381">0.0509522017,-0.0976393595,0.998471796</node>
			<node id="16382">0.0492166798,-0.148167653,1.01120021</node>
			<node id="16383">0.0474811579,-0.201328361,1.0309942</node>
			<node id="16384">0.0457456359,-0.259436393,1.04618994</node>
			<node id="16385">0.108846491,7.70371978e-34,0.998188704</node>
			<node id="16386">0.105962618,-0.0451362125,0.999642578</node>
			<node id="16387">0.103078745,-0.0915041615,1.00557336</node>
			<node id="16388">0.100194871,-0.140673469,1.01697521</node>
			<node id="16389">0.0973109981,-0.195107608,1.03624066</node>
			<node id="16390">0.0944271249,-0.259436393,1.04618994</node>
			<node id="16391">0.163269737,0,1.0136032</node>
			<node id="16392">0.160572924,-0.0417606794,1.01452872</node>
<!-- ... 24422 like lines cut -->
		</Nodes>
		<Nodes name="MEMBRANE_OBJ">
			<node id="40815">0,-3,-0.2</node>
			<node id="40816">3,-3,-0.2</node>
			<node id="40817">3,0,-0.2</node>
			<node id="40818">0,0,-0.2</node>
			<node id="40819">0,-3,0</node>
			<node id="40820">3,-3,0</node>
			<node id="40821">3,0,0</node>
			<node id="40822">0,0,0</node>
			<node id="40823">0.0523788743,-3,-0.2</node>
			<node id="40824">0.109995636,-3,-0.2</node>
			<node id="40825">0.173374074,-3,-0.2</node>
			<node id="40826">0.243090356,-3,-0.2</node>
			<node id="40827">0.319778266,-3,-0.2</node>
			<node id="40828">0.404134966,-3,-0.2</node>
			<node id="40829">0.496927337,-3,-0.2</node>
			<node id="40830">0.598998946,-3,-0.2</node>
			<node id="40831">0.711277714,-3,-0.2</node>
			<node id="40832">0.83478436,-3,-0.2</node>
			<node id="40833">0.97064167,-3,-0.2</node>
			<node id="40834">1.12008471,-3,-0.2</node>
<!-- ... 2185 like lines cut -->
		</Nodes>
		<Elements type="hex8" name="KEYCAP">
			<elem id="1">1,9,583,145,48,165,963,240</elem>
			<elem id="2">9,10,584,583,165,166,964,963</elem>
			<elem id="3">10,11,585,584,166,167,965,964</elem>
			<elem id="4">11,12,586,585,167,168,966,965</elem>
			<elem id="5">12,13,587,586,168,169,967,966</elem>
			<elem id="6">13,14,588,587,169,170,968,967</elem>
			<elem id="7">14,15,589,588,170,171,969,968</elem>
			<elem id="8">15,16,590,589,171,172,970,969</elem>
			<elem id="9">16,17,591,590,172,173,971,970</elem>
			<elem id="10">17,18,592,591,173,174,972,971</elem>
			<elem id="11">18,19,593,592,174,175,973,972</elem>
			<elem id="12">19,20,594,593,175,176,974,973</elem>
			<elem id="13">20,21,595,594,176,177,975,974</elem>
			<elem id="14">21,22,596,595,177,178,976,975</elem>
			<elem id="15">22,23,597,596,178,179,977,976</elem>
			<elem id="16">23,24,598,597,179,180,978,977</elem>
			<elem id="17">24,25,599,598,180,181,979,978</elem>
			<elem id="18">25,26,600,599,181,182,980,979</elem>
			<elem id="19">26,27,601,600,182,183,981,980</elem>
			<elem id="20">27,2,49,601,183,28,184,981</elem>
<!-- ... 780 like lines cut -->
		</Elements>
		<Elements type="hex20" name="RUBBER">
			<elem id="100277">16373,16374,16380,16379,16433,16434,16440,16439,22873,22876,22891,22874,23049,23052,23067,23050,22875,22877,22894,22892</elem>
			<elem id="100278">16374,16375,16381,16380,16434,16435,16441,16440,22878,22879,22895,22876,23053,23055,23070,23052,22877,22880,22897,22894</elem>
			<elem id="100279">16375,16376,16382,16381,16435,16436,16442,16441,22881,22882,22898,22879,23056,23058,23073,23055,22880,22883,22900,22897</elem>
			<elem id="100280">16376,16377,16383,16382,16436,16437,16443,16442,22884,22885,22901,22882,23059,23061,23076,23058,22883,22886,22903,22900</elem>
			<elem id="100281">16377,16378,16384,16383,16437,16438,16444,16443,22887,22888,22904,22885,23062,23064,23079,23061,22886,22889,22906,22903</elem>
			<elem id="100282">16379,16380,16386,16385,16439,16440,16446,16445,22891,22896,22909,22893,23067,23071,23085,23068,22892,22894,22912,22910</elem>
			<elem id="100283">16380,16381,16387,16386,16440,16441,16447,16446,22895,22899,22913,22896,23070,23074,23088,23071,22894,22897,22915,22912</elem>
			<elem id="100284">16381,16382,16388,16387,16441,16442,16448,16447,22898,22902,22916,22899,23073,23077,23091,23074,22897,22900,22918,22915</elem>
			<elem id="100285">16382,16383,16389,16388,16442,16443,16449,16448,22901,22905,22919,22902,23076,23080,23094,23077,22900,22903,22921,22918</elem>
			<elem id="100286">16383,16384,16390,16389,16443,16444,16450,16449,22904,22907,22922,22905,23079,23082,23097,23080,22903,22906,22924,22921</elem>
			<elem id="100287">16385,16386,16392,16391,16445,16446,16452,16451,22909,22914,22927,22911,23085,23089,23103,23086,22910,22912,22930,22928</elem>
			<elem id="100288">16386,16387,16393,16392,16446,16447,16453,16452,22913,22917,22931,22914,23088,23092,23106,23089,22912,22915,22933,22930</elem>
			<elem id="100289">16387,16388,16394,16393,16447,16448,16454,16453,22916,22920,22934,22917,23091,23095,23109,23092,22915,22918,22936,22933</elem>
			<elem id="100290">16388,16389,16395,16394,16448,16449,16455,16454,22919,22923,22937,22920,23094,23098,23112,23095,22918,22921,22939,22936</elem>
			<elem id="100291">16389,16390,16396,16395,16449,16450,16456,16455,22922,22925,22940,22923,23097,23100,23115,23098,22921,22924,22942,22939</elem>
			<elem id="100292">16391,16392,16398,16397,16451,16452,16458,16457,22927,22932,22945,22929,23103,23107,23121,23104,22928,22930,22948,22946</elem>
			<elem id="100293">16392,16393,16399,16398,16452,16453,16459,16458,22931,22935,22949,22932,23106,23110,23124,23107,22930,22933,22951,22948</elem>
			<elem id="100294">16393,16394,16400,16399,16453,16454,16460,16459,22934,22938,22952,22935,23109,23113,23127,23110,22933,22936,22954,22951</elem>
			<elem id="100295">16394,16395,16401,16400,16454,16455,16461,16460,22937,22941,22955,22938,23112,23116,23130,23113,22936,22939,22957,22954</elem>
			<elem id="100296">16395,16396,16402,16401,16455,16456,16462,16461,22940,22943,22958,22941,23115,23118,23133,23116,22939,22942,22960,22957</elem>
<!-- ... 5024 like lines cut -->
		</Elements>
		<Elements type="hex8" name="MEMBRANE">
			<elem id="105321">40815,40823,41557,40967,40866,40987,41937,41176</elem>
			<elem id="105322">40823,40824,41558,41557,40987,40988,41938,41937</elem>
			<elem id="105323">40824,40825,41559,41558,40988,40989,41939,41938</elem>
			<elem id="105324">40825,40826,41560,41559,40989,40990,41940,41939</elem>
			<elem id="105325">40826,40827,41561,41560,40990,40991,41941,41940</elem>
			<elem id="105326">40827,40828,41562,41561,40991,40992,41942,41941</elem>
			<elem id="105327">40828,40829,41563,41562,40992,40993,41943,41942</elem>
			<elem id="105328">40829,40830,41564,41563,40993,40994,41944,41943</elem>
			<elem id="105329">40830,40831,41565,41564,40994,40995,41945,41944</elem>
			<elem id="105330">40831,40832,41566,41565,40995,40996,41946,41945</elem>
			<elem id="105331">40832,40833,41567,41566,40996,40997,41947,41946</elem>
			<elem id="105332">40833,40834,41568,41567,40997,40998,41948,41947</elem>
			<elem id="105333">40834,40835,41569,41568,40998,40999,41949,41948</elem>
			<elem id="105334">40835,40836,41570,41569,40999,41000,41950,41949</elem>
			<elem id="105335">40836,40837,41571,41570,41000,41001,41951,41950</elem>
			<elem id="105336">40837,40838,41572,41571,41001,41002,41952,41951</elem>
			<elem id="105337">40838,40839,41573,41572,41002,41003,41953,41952</elem>
			<elem id="105338">40839,40840,41574,41573,41003,41004,41954,41953</elem>
			<elem id="105339">40840,40841,41575,41574,41004,41005,41955,41954</elem>
			<elem id="105340">40841,40816,40867,41575,41005,40842,41044,41955</elem>
<!-- ... 1580 like lines cut -->
		</Elements>
		<Surface name="RUBBER_BOTTOM_CONTACTPrimary">
			<quad8 id="1">16379,16380,16374,16373,22891,22876,22873,22874</quad8>
			<quad8 id="2">16380,16381,16375,16374,22895,22879,22878,22876</quad8>
			<quad8 id="3">16381,16382,16376,16375,22898,22882,22881,22879</quad8>
			<quad8 id="4">16382,16383,16377,16376,22901,22885,22884,22882</quad8>
			<quad8 id="5">16383,16384,16378,16377,22904,22888,22887,22885</quad8>
			<quad8 id="6">16385,16386,16380,16379,22909,22896,22891,22893</quad8>
			<quad8 id="7">16386,16387,16381,16380,22913,22899,22895,22896</quad8>
			<quad8 id="8">16387,16388,16382,16381,22916,22902,22898,22899</quad8>
			<quad8 id="9">16388,16389,16383,16382,22919,22905,22901,22902</quad8>
			<quad8 id="10">16389,16390,16384,16383,22922,22907,22904,22905</quad8>
			<quad8 id="11">16391,16392,16386,16385,22927,22914,22909,22911</quad8>
			<quad8 id="12">16392,16393,16387,16386,22931,22917,22913,22914</quad8>
			<quad8 id="13">16393,16394,16388,16387,22934,22920,22916,22917</quad8>
			<quad8 id="14">16394,16395,16389,16388,22937,22923,22919,22920</quad8>
			<quad8 id="15">16395,16396,16390,16389,22940,22925,22922,22923</quad8>
			<quad8 id="16">16397,16398,16392,16391,22945,22932,22927,22929</quad8>
			<quad8 id="17">16398,16399,16393,16392,22949,22935,22931,22932</quad8>
			<quad8 id="18">16399,16400,16394,16393,22952,22938,22934,22935</quad8>
			<quad8 id="19">16400,16401,16395,16394,22955,22941,22937,22938</quad8>
			<quad8 id="20">16401,16402,16396,16395,22958,22943,22940,22941</quad8>
<!-- ... 567 like lines cut -->
		</Surface>
		<Surface name="RUBBER_BOTTOM_CONTACTSecondary">
			<quad4 id="1">40819,40863,41576,40968</quad4>
			<quad4 id="2">40863,40862,41577,41576</quad4>
			<quad4 id="3">40862,40861,41578,41577</quad4>
			<quad4 id="4">40861,40860,41579,41578</quad4>
			<quad4 id="5">40860,40859,41580,41579</quad4>
			<quad4 id="6">40859,40858,41581,41580</quad4>
			<quad4 id="7">40858,40857,41582,41581</quad4>
			<quad4 id="8">40857,40856,41583,41582</quad4>
			<quad4 id="9">40856,40855,41584,41583</quad4>
			<quad4 id="10">40855,40854,41585,41584</quad4>
			<quad4 id="11">40854,40853,41586,41585</quad4>
			<quad4 id="12">40853,40852,41587,41586</quad4>
			<quad4 id="13">40852,40851,41588,41587</quad4>
			<quad4 id="14">40851,40850,41589,41588</quad4>
			<quad4 id="15">40850,40849,41590,41589</quad4>
			<quad4 id="16">40849,40848,41591,41590</quad4>
			<quad4 id="17">40848,40847,41592,41591</quad4>
			<quad4 id="18">40847,40846,41593,41592</quad4>
			<quad4 id="19">40846,40845,41594,41593</quad4>
			<quad4 id="20">40845,40820,40907,41594</quad4>
<!-- ... 380 like lines cut -->
		</Surface>
		<Surface name="RUBBER_SELF_CONTACTPrimary">
			<quad8 id="1">16379,16380,16374,16373,22891,22876,22873,22874</quad8>
			<quad8 id="2">16380,16381,16375,16374,22895,22879,22878,22876</quad8>
			<quad8 id="3">16381,16382,16376,16375,22898,22882,22881,22879</quad8>
			<quad8 id="4">16382,16383,16377,16376,22901,22885,22884,22882</quad8>
			<quad8 id="5">16383,16384,16378,16377,22904,22888,22887,22885</quad8>
			<quad8 id="6">16385,16386,16380,16379,22909,22896,22891,22893</quad8>
			<quad8 id="7">16386,16387,16381,16380,22913,22899,22895,22896</quad8>
			<quad8 id="8">16387,16388,16382,16381,22916,22902,22898,22899</quad8>
			<quad8 id="9">16388,16389,16383,16382,22919,22905,22901,22902</quad8>
			<quad8 id="10">16389,16390,16384,16383,22922,22907,22904,22905</quad8>
			<quad8 id="11">16391,16392,16386,16385,22927,22914,22909,22911</quad8>
			<quad8 id="12">16392,16393,16387,16386,22931,22917,22913,22914</quad8>
			<quad8 id="13">16393,16394,16388,16387,22934,22920,22916,22917</quad8>
			<quad8 id="14">16394,16395,16389,16388,22937,22923,22919,22920</quad8>
			<quad8 id="15">16395,16396,16390,16389,22940,22925,22922,22923</quad8>
			<quad8 id="16">16397,16398,16392,16391,22945,22932,22927,22929</quad8>
			<quad8 id="17">16398,16399,16393,16392,22949,22935,22931,22932</quad8>
			<quad8 id="18">16399,16400,16394,16393,22952,22938,22934,22935</quad8>
			<quad8 id="19">16400,16401,16395,16394,22955,22941,22937,22938</quad8>
			<quad8 id="20">16401,16402,16396,16395,22958,22943,22940,22941</quad8>
<!-- ... 567 like lines cut -->
		</Surface>
		<Surface name="RUBBER_SELF_CONTACTSecondary">
			<quad8 id="1">17747,17746,18270,18271,26848,26849,28331,26851</quad8>
			<quad8 id="2">17748,17747,18271,18272,26852,26851,28334,26854</quad8>
			<quad8 id="3">17749,17748,18272,18273,26855,26854,28337,26857</quad8>
			<quad8 id="4">17750,17749,18273,18274,26858,26857,28340,26860</quad8>
			<quad8 id="5">17773,17774,18298,18297,26928,26931,28411,26929</quad8>
			<quad8 id="6">17774,17775,18299,18298,26932,26934,28414,26931</quad8>
			<quad8 id="7">17775,17776,18300,18299,26935,26937,28417,26934</quad8>
			<quad8 id="8">17776,17644,18168,18300,26552,26554,28035,26937</quad8>
			<quad8 id="9">17754,17753,18277,18278,26868,26870,28351,26872</quad8>
			<quad8 id="10">17753,17752,18276,18277,26865,26867,28348,26870</quad8>
			<quad8 id="11">17752,17751,18275,18276,26862,26864,28345,26867</quad8>
			<quad8 id="12">17751,17750,18274,18275,26861,26860,28343,26864</quad8>
			<quad8 id="13">17746,17745,18269,18270,26844,26846,28327,26849</quad8>
			<quad8 id="14">17745,17744,18268,18269,26841,26843,28324,26846</quad8>
			<quad8 id="15">17744,17743,18267,18268,26838,26840,28321,26843</quad8>
			<quad8 id="16">17743,17643,18167,18267,26548,26550,28031,26840</quad8>
			<quad8 id="17">17758,17757,18281,18282,26880,26882,28363,26884</quad8>
			<quad8 id="18">17757,17756,18280,18281,26877,26879,28360,26882</quad8>
			<quad8 id="19">17756,17755,18279,18280,26874,26876,28357,26879</quad8>
			<quad8 id="20">17755,17754,18278,18279,26873,26872,28355,26876</quad8>
<!-- ... 772 like lines cut -->
		</Surface>
		<Surface name="TOP_CONTACTPrimary">
			<quad8 id="1">17573,17574,17580,17579,26393,26395,26405,26394</quad8>
			<quad8 id="2">17574,17575,17581,17580,26396,26397,26407,26395</quad8>
			<quad8 id="3">17575,17576,17582,17581,26398,26399,26409,26397</quad8>
			<quad8 id="4">17576,17577,17583,17582,26400,26401,26411,26399</quad8>
			<quad8 id="5">17577,17578,17584,17583,26402,26403,26413,26401</quad8>
			<quad8 id="6">17579,17580,17586,17585,26405,26408,26417,26406</quad8>
			<quad8 id="7">17580,17581,17587,17586,26407,26410,26419,26408</quad8>
			<quad8 id="8">17581,17582,17588,17587,26409,26412,26421,26410</quad8>
			<quad8 id="9">17582,17583,17589,17588,26411,26414,26423,26412</quad8>
			<quad8 id="10">17583,17584,17590,17589,26413,26415,26425,26414</quad8>
			<quad8 id="11">17585,17586,17592,17591,26417,26420,26429,26418</quad8>
			<quad8 id="12">17586,17587,17593,17592,26419,26422,26431,26420</quad8>
			<quad8 id="13">17587,17588,17594,17593,26421,26424,26433,26422</quad8>
			<quad8 id="14">17588,17589,17595,17594,26423,26426,26435,26424</quad8>
			<quad8 id="15">17589,17590,17596,17595,26425,26427,26437,26426</quad8>
			<quad8 id="16">17591,17592,17598,17597,26429,26432,26441,26430</quad8>
			<quad8 id="17">17592,17593,17599,17598,26431,26434,26443,26432</quad8>
			<quad8 id="18">17593,17594,17600,17599,26433,26436,26445,26434</quad8>
			<quad8 id="19">17594,17595,17601,17600,26435,26438,26447,26436</quad8>
			<quad8 id="20">17595,17596,17602,17601,26437,26439,26449,26438</quad8>
<!-- ... 603 like lines cut -->
		</Surface>
		<Surface name="TOP_CONTACTSecondary">
			<quad4 id="1">4,106,241,127</quad4>
			<quad4 id="2">106,105,242,241</quad4>
			<quad4 id="3">105,104,243,242</quad4>
			<quad4 id="4">104,103,244,243</quad4>
			<quad4 id="5">103,102,245,244</quad4>
			<quad4 id="6">102,101,246,245</quad4>
			<quad4 id="7">101,100,247,246</quad4>
			<quad4 id="8">100,99,248,247</quad4>
			<quad4 id="9">99,98,249,248</quad4>
			<quad4 id="10">98,97,250,249</quad4>
			<quad4 id="11">97,96,251,250</quad4>
			<quad4 id="12">96,95,252,251</quad4>
			<quad4 id="13">95,94,253,252</quad4>
			<quad4 id="14">94,93,254,253</quad4>
			<quad4 id="15">93,92,255,254</quad4>
			<quad4 id="16">92,91,256,255</quad4>
			<quad4 id="17">91,90,257,256</quad4>
			<quad4 id="18">90,89,258,257</quad4>
			<quad4 id="19">89,88,259,258</quad4>
			<quad4 id="20">88,3,67,259</quad4>
<!-- ... 380 like lines cut -->
		</Surface>
		<Surface name="FIXED_BOTTOM_SET">
			<quad8 id="1">17717,17718,18242,18241,26764,26767,28247,26765</quad8>
			<quad8 id="2">17718,17719,18243,18242,26768,26770,28250,26767</quad8>
			<quad8 id="3">17719,17720,18244,18243,26771,26773,28253,26770</quad8>
			<quad8 id="4">17720,17721,18245,18244,26774,26776,28256,26773</quad8>
			<quad8 id="5">17639,17714,18238,18163,26535,26755,28018,26536</quad8>
			<quad8 id="6">17714,17715,18239,18238,26756,26758,28238,26755</quad8>
			<quad8 id="7">17715,17716,18240,18239,26759,26761,28241,26758</quad8>
			<quad8 id="8">17716,17717,18241,18240,26762,26765,28244,26761</quad8>
			<quad8 id="9">17721,17722,18246,18245,26777,26779,28259,26776</quad8>
			<quad8 id="10">17722,17723,18247,18246,26780,26782,28262,26779</quad8>
			<quad8 id="11">17723,17724,18248,18247,26783,26785,28265,26782</quad8>
			<quad8 id="12">17724,17640,18164,18248,26537,26539,28020,26785</quad8>
			<quad8 id="13">18241,18242,18766,18765,28247,28251,29730,28248</quad8>
			<quad8 id="14">18242,18243,18767,18766,28250,28254,29733,28251</quad8>
			<quad8 id="15">18243,18244,18768,18767,28253,28257,29736,28254</quad8>
			<quad8 id="16">18244,18245,18769,18768,28256,28260,29739,28257</quad8>
			<quad8 id="17">18163,18238,18762,18687,28018,28239,29501,28019</quad8>
			<quad8 id="18">18238,18239,18763,18762,28238,28242,29721,28239</quad8>
			<quad8 id="19">18239,18240,18764,18763,28241,28245,29724,28242</quad8>
			<quad8 id="20">18240,18241,18765,18764,28244,28248,29727,28245</quad8>
<!-- ... 88 like lines cut -->
		</Surface>
		<Surface name="X_RESTRICTION">
			<quad8 id="1">16373,16374,16434,16433,22873,22877,23049,22875</quad8>
			<quad8 id="2">16374,16375,16435,16434,22878,22880,23053,22877</quad8>
			<quad8 id="3">16375,16376,16436,16435,22881,22883,23056,22880</quad8>
			<quad8 id="4">16376,16377,16437,16436,22884,22886,23059,22883</quad8>
			<quad8 id="5">16377,16378,16438,16437,22887,22889,23062,22886</quad8>
			<quad8 id="6">16378,16403,16463,16438,22890,22963,23065,22889</quad8>
			<quad8 id="7">16403,16404,16464,16463,22964,22966,23139,22963</quad8>
			<quad8 id="8">16404,16405,16465,16464,22967,22969,23142,22966</quad8>
			<quad8 id="9">16433,16434,16494,16493,23049,23054,23225,23051</quad8>
			<quad8 id="10">16434,16435,16495,16494,23053,23057,23229,23054</quad8>
			<quad8 id="11">16435,16436,16496,16495,23056,23060,23232,23057</quad8>
			<quad8 id="12">16436,16437,16497,16496,23059,23063,23235,23060</quad8>
			<quad8 id="13">16437,16438,16498,16497,23062,23066,23238,23063</quad8>
			<quad8 id="14">16438,16463,16523,16498,23065,23140,23241,23066</quad8>
			<quad8 id="15">16463,16464,16524,16523,23139,23143,23315,23140</quad8>
			<quad8 id="16">16464,16465,16525,16524,23142,23145,23318,23143</quad8>
			<quad8 id="17">16493,16494,16554,16553,23225,23230,23401,23227</quad8>
			<quad8 id="18">16494,16495,16555,16554,23229,23233,23405,23230</quad8>
			<quad8 id="19">16495,16496,16556,16555,23232,23236,23408,23233</quad8>
			<quad8 id="20">16496,16497,16557,16556,23235,23239,23411,23236</quad8>
<!-- ... 596 like lines cut -->
		</Surface>
		<Surface name="Y_RESTRICTION">
			<quad8 id="1">16379,16373,16433,16439,22874,22875,23050,22892</quad8>
			<quad8 id="2">16385,16379,16439,16445,22893,22892,23068,22910</quad8>
			<quad8 id="3">16391,16385,16445,16451,22911,22910,23086,22928</quad8>
			<quad8 id="4">16397,16391,16451,16457,22929,22928,23104,22946</quad8>
			<quad8 id="5">16430,16397,16457,16490,22947,22946,23122,23043</quad8>
			<quad8 id="6">16431,16430,16490,16491,23044,23043,23219,23045</quad8>
			<quad8 id="7">16432,16431,16491,16492,23046,23045,23221,23047</quad8>
			<quad8 id="8">16439,16433,16493,16499,23050,23051,23226,23069</quad8>
			<quad8 id="9">16445,16439,16499,16505,23068,23069,23244,23087</quad8>
			<quad8 id="10">16451,16445,16505,16511,23086,23087,23262,23105</quad8>
			<quad8 id="11">16457,16451,16511,16517,23104,23105,23280,23123</quad8>
			<quad8 id="12">16490,16457,16517,16550,23122,23123,23298,23220</quad8>
			<quad8 id="13">16491,16490,16550,16551,23219,23220,23395,23222</quad8>
			<quad8 id="14">16492,16491,16551,16552,23221,23222,23397,23223</quad8>
			<quad8 id="15">16499,16493,16553,16559,23226,23227,23402,23245</quad8>
			<quad8 id="16">16505,16499,16559,16565,23244,23245,23420,23263</quad8>
			<quad8 id="17">16511,16505,16565,16571,23262,23263,23438,23281</quad8>
			<quad8 id="18">16517,16511,16571,16577,23280,23281,23456,23299</quad8>
			<quad8 id="19">16550,16517,16577,16610,23298,23299,23474,23396</quad8>
			<quad8 id="20">16551,16550,16610,16611,23395,23396,23571,23398</quad8>
<!-- ... 576 like lines cut -->
		</Surface>
		<Surface name="MEMBRANE_FIX">
			<quad4 id="1">40815,40823,40987,40866</quad4>
			<quad4 id="2">40823,40824,40988,40987</quad4>
			<quad4 id="3">40824,40825,40989,40988</quad4>
			<quad4 id="4">40825,40826,40990,40989</quad4>
			<quad4 id="5">40826,40827,40991,40990</quad4>
			<quad4 id="6">40827,40828,40992,40991</quad4>
			<quad4 id="7">40828,40829,40993,40992</quad4>
			<quad4 id="8">40829,40830,40994,40993</quad4>
			<quad4 id="9">40830,40831,40995,40994</quad4>
			<quad4 id="10">40831,40832,40996,40995</quad4>
			<quad4 id="11">40832,40833,40997,40996</quad4>
			<quad4 id="12">40833,40834,40998,40997</quad4>
			<quad4 id="13">40834,40835,40999,40998</quad4>
			<quad4 id="14">40835,40836,41000,40999</quad4>
			<quad4 id="15">40836,40837,41001,41000</quad4>
			<quad4 id="16">40837,40838,41002,41001</quad4>
			<quad4 id="17">40838,40839,41003,41002</quad4>
			<quad4 id="18">40839,40840,41004,41003</quad4>
			<quad4 id="19">40840,40841,41005,41004</quad4>
			<quad4 id="20">40841,40816,40842,41005</quad4>
<!-- ... 140 like lines cut -->
		</Surface>
		<Surface name="ZeroDisplacement5">
			<quad4 id="1">40818,40949,41158,40927</quad4>
			<quad4 id="2">40949,40950,41159,41158</quad4>
			<quad4 id="3">40950,40951,41160,41159</quad4>
			<quad4 id="4">40951,40952,41161,41160</quad4>
			<quad4 id="5">40952,40953,41162,41161</quad4>
			<quad4 id="6">40953,40954,41163,41162</quad4>
			<quad4 id="7">40954,40955,41164,41163</quad4>
			<quad4 id="8">40955,40956,41165,41164</quad4>
			<quad4 id="9">40956,40957,41166,41165</quad4>
			<quad4 id="10">40957,40958,41167,41166</quad4>
			<quad4 id="11">40958,40959,41168,41167</quad4>
			<quad4 id="12">40959,40960,41169,41168</quad4>
			<quad4 id="13">40960,40961,41170,41169</quad4>
			<quad4 id="14">40961,40962,41171,41170</quad4>
			<quad4 id="15">40962,40963,41172,41171</quad4>
			<quad4 id="16">40963,40964,41173,41172</quad4>
			<quad4 id="17">40964,40965,41174,41173</quad4>
			<quad4 id="18">40965,40966,41175,41174</quad4>
			<quad4 id="19">40966,40967,41176,41175</quad4>
			<quad4 id="20">40967,40815,40866,41176</quad4>
<!-- ... 60 like lines cut -->
		</Surface>
		<Surface name="Y_RESTRICTION_MEMBRANE">
			<quad4 id="1">40817,40908,41101,40886</quad4>
			<quad4 id="2">40908,40909,41102,41101</quad4>
			<quad4 id="3">40909,40910,41103,41102</quad4>
			<quad4 id="4">40910,40911,41104,41103</quad4>
			<quad4 id="5">40911,40912,41105,41104</quad4>
			<quad4 id="6">40912,40913,41106,41105</quad4>
			<quad4 id="7">40913,40914,41107,41106</quad4>
			<quad4 id="8">40914,40915,41108,41107</quad4>
			<quad4 id="9">40915,40916,41109,41108</quad4>
			<quad4 id="10">40916,40917,41110,41109</quad4>
			<quad4 id="11">40917,40918,41111,41110</quad4>
			<quad4 id="12">40918,40919,41112,41111</quad4>
			<quad4 id="13">40919,40920,41113,41112</quad4>
			<quad4 id="14">40920,40921,41114,41113</quad4>
			<quad4 id="15">40921,40922,41115,41114</quad4>
			<quad4 id="16">40922,40923,41116,41115</quad4>
			<quad4 id="17">40923,40924,41117,41116</quad4>
			<quad4 id="18">40924,40925,41118,41117</quad4>
			<quad4 id="19">40925,40926,41119,41118</quad4>
			<quad4 id="20">40926,40818,40927,41119</quad4>
<!-- ... 60 like lines cut -->
		</Surface>
		<SurfacePair name="TOP_CONTACT">
			<primary>TOP_CONTACTPrimary</primary>
			<secondary>TOP_CONTACTSecondary</secondary>
		</SurfacePair>
		<SurfacePair name="RUBBER_BOTTOM_CONTACT">
			<primary>RUBBER_BOTTOM_CONTACTPrimary</primary>
			<secondary>RUBBER_BOTTOM_CONTACTSecondary</secondary>
		</SurfacePair>
		<SurfacePair name="RUBBER_SELF_CONTACT">
			<primary>RUBBER_SELF_CONTACTPrimary</primary>
			<secondary>RUBBER_SELF_CONTACTSecondary</secondary>
		</SurfacePair>
	</Mesh>
	<MeshDomains>
		<SolidDomain name="KEYCAP" mat="KEYCAP" type="rigid-solid">
		</SolidDomain>
		<SolidDomain name="RUBBER" mat="RUBBER" type="sri-solid">
		</SolidDomain>
		<SolidDomain name="MEMBRANE" mat="MEMBRANE" type="elastic-solid" elem_type="HEX8G8">
			<secant_stress>0</secant_stress>
			<secant_tangent>0</secant_tangent>
		</SolidDomain>
	</MeshDomains>
	<Boundary>
		<bc name="BOTTOM_FIX" node_set="@surface:FIXED_BOTTOM_SET" type="zero displacement">
			<x_dof>1</x_dof>
			<y_dof>1</y_dof>
			<z_dof>1</z_dof>
		</bc>
		<bc name="X_RESTRICTION" node_set="@surface:X_RESTRICTION" type="zero displacement">
			<x_dof>1</x_dof>
			<y_dof>0</y_dof>
			<z_dof>0</z_dof>
		</bc>
		<bc name="Y_RESTRICTION" node_set="@surface:Y_RESTRICTION" type="zero displacement">
			<x_dof>0</x_dof>
			<y_dof>1</y_dof>
			<z_dof>0</z_dof>
		</bc>
		<bc name="MEMBRANE_FIX" node_set="@surface:MEMBRANE_FIX" type="zero displacement">
			<x_dof>1</x_dof>
			<y_dof>1</y_dof>
			<z_dof>1</z_dof>
		</bc>
		<bc name="X_RESTRICTION_MEMBRANE" node_set="@surface:ZeroDisplacement5" type="zero displacement">
			<x_dof>1</x_dof>
			<y_dof>0</y_dof>
			<z_dof>0</z_dof>
		</bc>
		<bc name="Y_RESTRICTION_MEMBRANE" node_set="@surface:Y_RESTRICTION_MEMBRANE" type="zero displacement">
			<x_dof>0</x_dof>
			<y_dof>1</y_dof>
			<z_dof>0</z_dof>
		</bc>
	</Boundary>
	<Rigid>
		<rigid_bc name="KEYCAP_FIX" type="rigid_fixed">
			<rb>KEYCAP</rb>
			<Rx_dof>1</Rx_dof>
			<Ry_dof>1</Ry_dof>
			<Rz_dof>0</Rz_dof>
			<Ru_dof>1</Ru_dof>
			<Rv_dof>1</Rv_dof>
			<Rw_dof>1</Rw_dof>
		</rigid_bc>
		<rigid_bc name="KEYCAP_PUSH" type="rigid_displacement">
			<rb>KEYCAP</rb>
			<dof>z</dof>
			<value lc="1">-1.75</value>
			<relative>0</relative>
		</rigid_bc>
	</Rigid>
	<Contact>
		<contact name="TOP_CONTACT" surface_pair="TOP_CONTACT" type="sliding-elastic">
			<laugon>AUGLAG</laugon>
			<tolerance>0.05</tolerance>
			<gaptol>0</gaptol>
			<penalty>1</penalty>
			<auto_penalty>1</auto_penalty>
			<update_penalty>0</update_penalty>
			<two_pass>0</two_pass>
			<knmult>0</knmult>
			<search_tol>0.01</search_tol>
			<symmetric_stiffness>0</symmetric_stiffness>
			<search_radius>0.1</search_radius>
			<seg_up>0</seg_up>
			<tension>0</tension>
			<minaug>0</minaug>
			<maxaug>10</maxaug>
			<node_reloc>0</node_reloc>
			<fric_coeff>0.5</fric_coeff>
			<smooth_aug>0</smooth_aug>
			<flip_primary>0</flip_primary>
			<flip_secondary>0</flip_secondary>
			<shell_bottom_primary>0</shell_bottom_primary>
			<shell_bottom_secondary>0</shell_bottom_secondary>
			<offset>0</offset>
		</contact>
		<contact name="RUBBER_BOTTOM_CONTACT" surface_pair="RUBBER_BOTTOM_CONTACT" type="sliding-elastic">
			<laugon>PENALTY</laugon>
			<tolerance>0.02</tolerance>
			<gaptol>0</gaptol>
			<penalty>3</penalty>
			<auto_penalty>1</auto_penalty>
			<update_penalty>0</update_penalty>
			<two_pass>0</two_pass>
			<knmult>0</knmult>
			<search_tol>0.2</search_tol>
			<symmetric_stiffness>0</symmetric_stiffness>
			<search_radius>0.1</search_radius>
			<seg_up>0</seg_up>
			<tension>0</tension>
			<minaug>0</minaug>
			<maxaug>10</maxaug>
			<node_reloc>0</node_reloc>
			<fric_coeff>0.5</fric_coeff>
			<smooth_aug>0</smooth_aug>
			<flip_primary>0</flip_primary>
			<flip_secondary>0</flip_secondary>
			<shell_bottom_primary>0</shell_bottom_primary>
			<shell_bottom_secondary>0</shell_bottom_secondary>
			<offset>0</offset>
		</contact>
	</Contact>
	<Step>
		<step id="1" name="Step01">
			<Control>
				<analysis>STATIC</analysis>
				<time_steps>50</time_steps>
				<step_size>1</step_size>
				<plot_zero_state>1</plot_zero_state>
				<plot_range>0,-1</plot_range>
				<plot_level>PLOT_MAJOR_ITRS</plot_level>
				<output_level>OUTPUT_MAJOR_ITRS</output_level>
				<plot_stride>1</plot_stride>
				<output_stride>1</output_stride>
				<adaptor_re_solve>1</adaptor_re_solve>
				<time_stepper type="default">
					<max_retries>5</max_retries>
					<opt_iter>11</opt_iter>
					<dtmin>0.08</dtmin>
					<dtmax>1</dtmax>
					<aggressiveness>0</aggressiveness>
					<cutback>0.5</cutback>
					<dtforce>0</dtforce>
				</time_stepper>
				<solver type="solid">
					<symmetric_stiffness>preferred</symmetric_stiffness>
					<equation_scheme>staggered</equation_scheme>
					<equation_order>default</equation_order>
					<optimize_bw>0</optimize_bw>
					<lstol>0.9</lstol>
					<lsmin>0.01</lsmin>
					<lsiter>5</lsiter>
					<ls_check_jacobians>0</ls_check_jacobians>
					<max_refs>15</max_refs>
					<check_zero_diagonal>0</check_zero_diagonal>
					<zero_diagonal_tol>0</zero_diagonal_tol>
					<force_partition>0</force_partition>
					<reform_each_time_step>1</reform_each_time_step>
					<reform_augment>0</reform_augment>
					<diverge_reform>1</diverge_reform>
					<min_residual>1e-20</min_residual>
					<max_residual>0</max_residual>
					<dtol>0.005</dtol>
					<etol>0.01</etol>
					<rtol>0</rtol>
					<rhoi>-2</rhoi>
					<alpha>1</alpha>
					<beta>0.25</beta>
					<gamma>0.5</gamma>
					<logSolve>0</logSolve>
					<arc_length>0</arc_length>
					<arc_length_scale>0</arc_length_scale>
					<qn_method type="BFGS">
						<max_ups>10</max_ups>
						<max_buffer_size>0</max_buffer_size>
						<cycle_buffer>1</cycle_buffer>
						<cmax>100000</cmax>
					</qn_method>
				</solver>
			</Control>
			<Contact>
				<contact name="RUBBER_SELF_CONTACT" surface_pair="RUBBER_SELF_CONTACT" type="sliding-elastic">
					<laugon>PENALTY</laugon>
					<tolerance>0.02</tolerance>
					<gaptol>0.05</gaptol>
					<penalty>5</penalty>
					<auto_penalty>1</auto_penalty>
					<update_penalty>1</update_penalty>
					<two_pass>0</two_pass>
					<knmult>0</knmult>
					<search_tol>0.1</search_tol>
					<symmetric_stiffness>0</symmetric_stiffness>
					<search_radius>0.01</search_radius>
					<seg_up>0</seg_up>
					<tension>0</tension>
					<minaug>0</minaug>
					<maxaug>10</maxaug>
					<node_reloc>0</node_reloc>
					<fric_coeff>0.5</fric_coeff>
					<smooth_aug>0</smooth_aug>
					<flip_primary>0</flip_primary>
					<flip_secondary>0</flip_secondary>
					<shell_bottom_primary>0</shell_bottom_primary>
					<shell_bottom_secondary>0</shell_bottom_secondary>
					<offset>0</offset>
				</contact>
			</Contact>
		</step>
	</Step>
	<LoadData>
		<load_controller id="1" name="LC1_KEYCAP" type="loadcurve">
			<interpolate>LINEAR</interpolate>
			<extend>CONSTANT</extend>
			<points>
				<pt>0,0</pt>
				<pt>50,1</pt>
				<pt>100,0</pt>
			</points>
		</load_controller>
	</LoadData>
	<Output>
		<plotfile type="febio">
			<var type="displacement"/>
			<var type="stress"/>
			<var type="Lagrange strain"/>
		</plotfile>
		<logfile file="rigid_body_data.txt">
			<rigid_body_data data="z;Fz" name="KEYCAP"/>
		</logfile>
	</Output>
</febio_spec>